Version 4
SHEET 1 880 680
WIRE 224 160 -288 160
WIRE 416 160 384 160
WIRE 224 192 0 192
WIRE 416 192 384 192
WIRE -288 240 -288 160
WIRE 0 240 0 192
WIRE -288 352 -288 320
WIRE 0 352 0 320
WIRE 0 352 -288 352
WIRE 16 352 0 352
WIRE 304 352 304 208
WIRE 304 352 16 352
WIRE 16 400 16 352
FLAG 16 400 0
FLAG 416 160 Out
FLAG 416 192 nOut
SYMBOL D-latch 304 176 R0
WINDOW 0 -5 -43 Left 0
WINDOW 39 -11 -21 Left 0
SYMATTR InstName X1
SYMATTR SpiceLine Td=100m
SYMBOL voltage -288 224 R0
WINDOW 123 0 0 Left 0
WINDOW 39 0 0 Left 0
SYMATTR InstName V1
SYMATTR Value PULSE(0 1 0 0 0 1 2)
SYMBOL voltage 0 224 R0
WINDOW 123 0 0 Left 0
WINDOW 39 0 0 Left 0
SYMATTR InstName V2
SYMATTR Value PULSE(0 1 0 0 0 2 4)
TEXT -256 8 Left 2 !.tran 4
