Version 4
SHEET 1 880 680
WIRE 544 -400 -144 -400
WIRE -144 -304 -144 -400
WIRE -416 -208 -496 -208
WIRE -240 -208 -416 -208
WIRE 0 -208 -32 -208
WIRE 544 -208 544 -400
WIRE 96 -176 -32 -176
WIRE 96 -64 96 -176
WIRE -496 192 -496 -208
WIRE -144 192 -144 -96
WIRE -144 192 -496 192
WIRE 96 192 96 16
WIRE 96 192 -144 192
WIRE 544 192 544 -128
WIRE 544 192 96 192
FLAG 544 192 0
FLAG 96 -176 Vo-Ac
FLAG -416 -208 Vin
FLAG 0 -208 Vo-dc
SYMBOL klass-D-ganfet -96 -240 R0
SYMATTR InstName X1
SYMBOL voltage 544 -224 R0
WINDOW 123 0 0 Left 0
WINDOW 39 0 0 Left 0
SYMATTR InstName V1
SYMATTR Value 40V
SYMBOL current 96 16 R180
WINDOW 0 24 80 Left 2
WINDOW 3 24 0 Left 2
WINDOW 123 0 0 Left 0
WINDOW 39 0 0 Left 0
SYMATTR InstName I1
SYMATTR Value SINE(0 {Ampl} {Freq})
TEXT -232 320 Left 2 !#.step param Ampl list 1 20
TEXT -232 464 Left 2 !.tran 0 13u 3u 0.1n
TEXT -232 368 Left 2 !.param RL 1.3
TEXT -232 392 Left 2 !.param Freq=300k
TEXT -232 416 Left 2 !.param Ampl=0
