Version 4
SHEET 1 880 680
WIRE 560 -112 192 -112
WIRE 192 -16 192 -112
WIRE -80 80 -160 80
WIRE 96 80 -80 80
WIRE 336 80 304 80
WIRE 560 80 560 -112
WIRE 416 112 304 112
WIRE -160 128 -160 80
WIRE 416 160 416 112
WIRE -160 272 -160 208
WIRE 192 272 192 192
WIRE 192 272 -160 272
WIRE 416 272 416 240
WIRE 416 272 192 272
WIRE 560 272 560 160
WIRE 560 272 416 272
FLAG 560 272 0
FLAG 416 112 Vo-Ac
FLAG -80 80 Vin
FLAG 336 80 Vo-dc
SYMBOL klass-D-ganfet 240 48 R0
SYMATTR InstName X1
SYMBOL voltage 560 64 R0
WINDOW 123 0 0 Left 0
WINDOW 39 0 0 Left 0
SYMATTR InstName V1
SYMATTR Value 40V
SYMBOL res 400 144 R0
SYMATTR InstName R1
SYMATTR Value {RL}
SYMBOL voltage -160 112 R0
WINDOW 123 0 0 Left 0
WINDOW 39 0 0 Left 0
SYMATTR InstName V2
SYMATTR Value SINE(0 0.5 300k)
TEXT 104 400 Left 2 !#.step param RL list 1.3 100
TEXT 102 500 Left 2 !.tran 0 30u 0 0.1n
TEXT 104 448 Left 2 !.param RL 1.3
