Version 4
SHEET 1 880 720
WIRE 624 -160 -64 -160
WIRE -64 -64 -64 -160
WIRE -336 32 -416 32
WIRE -160 32 -336 32
WIRE 80 32 48 32
WIRE 624 32 624 -160
WIRE 176 64 48 64
WIRE 288 64 176 64
WIRE -416 192 -416 32
WIRE 288 192 288 64
WIRE 288 304 288 272
WIRE -416 432 -416 272
WIRE -64 432 -64 144
WIRE -64 432 -416 432
WIRE 288 432 288 384
WIRE 288 432 -64 432
WIRE 624 432 624 112
WIRE 624 432 288 432
FLAG 624 432 0
FLAG 176 64 Vo-Ac
FLAG -336 32 Vin
FLAG 80 32 Vo-dc
SYMBOL klass-D-ganfet -16 0 R0
SYMATTR InstName X1
SYMBOL voltage 624 16 R0
WINDOW 123 0 0 Left 0
WINDOW 39 0 0 Left 0
SYMATTR InstName V1
SYMATTR Value 40V
SYMBOL voltage -416 176 R0
WINDOW 123 0 0 Left 0
WINDOW 39 0 0 Left 0
SYMATTR InstName V2
SYMATTR Value SINE(0 0.9 {Freq})
SYMBOL res 272 176 R0
SYMATTR InstName R1
SYMATTR Value {RL}
SYMBOL voltage 288 288 R0
WINDOW 123 0 0 Left 0
WINDOW 39 0 0 Left 0
SYMATTR InstName V3
SYMATTR Value PULSE(0 20 1n 1n 1n 1s 1s)
TEXT -152 560 Left 2 !#.step param RL list 1.3 4 1k
TEXT -152 704 Left 2 !.tran 0 {2/Freq} {1/Freq} 0.1n
TEXT -152 632 Left 2 !.param RL=1.3
TEXT -152 656 Left 2 !.param Freq=500k
TEXT -152 584 Left 2 !#.step param Freq list 30k 100k 200k 300k 350k 400k
