Version 4
SHEET 1 880 680
WIRE 640 -320 -48 -320
WIRE -48 -224 -48 -320
WIRE -320 -128 -400 -128
WIRE -144 -128 -320 -128
WIRE 96 -128 64 -128
WIRE 640 -128 640 -320
WIRE 192 -96 64 -96
WIRE 304 -96 192 -96
WIRE -400 32 -400 -128
WIRE 304 32 304 -96
WIRE 304 144 304 112
WIRE -400 272 -400 112
WIRE -48 272 -48 -16
WIRE -48 272 -400 272
WIRE 304 272 304 224
WIRE 304 272 -48 272
WIRE 640 272 640 -48
WIRE 640 272 304 272
FLAG 640 272 0
FLAG 192 -96 Vo-Ac
FLAG -320 -128 Vin
FLAG 96 -128 Vo-dc
SYMBOL klass-D-ganfet 0 -160 R0
SYMATTR InstName X1
SYMBOL voltage 640 -144 R0
WINDOW 123 0 0 Left 0
WINDOW 39 0 0 Left 0
SYMATTR InstName V1
SYMATTR Value 40V
SYMBOL voltage -400 16 R0
WINDOW 123 0 0 Left 0
WINDOW 39 0 0 Left 0
SYMATTR InstName V2
SYMATTR Value SINE(0 0 {Freq})
SYMBOL res 288 16 R0
SYMATTR InstName R1
SYMATTR Value {RL}
SYMBOL voltage 304 128 R0
WINDOW 123 0 0 Left 0
WINDOW 39 0 0 Left 0
SYMATTR InstName V3
SYMATTR Value PULSE(0 20 1n 1n 1n 1s 1s)
TEXT -136 400 Left 2 !#.step param RL list 1.3 4 1k
TEXT -136 504 Left 2 !.tran 0 {3/Freq} {1/Freq} 0.1n
TEXT -136 448 Left 2 !.param RL=1k
TEXT -136 472 Left 2 !.param Freq=300k
