Version 4
SHEET 1 920 824
WIRE 528 -16 160 -16
WIRE 160 80 160 -16
WIRE -112 176 -192 176
WIRE 64 176 -112 176
WIRE 304 176 272 176
WIRE 528 176 528 -16
WIRE 384 208 272 208
WIRE -192 224 -192 176
WIRE 384 256 384 208
WIRE 384 400 384 336
WIRE -192 576 -192 304
WIRE 160 576 160 288
WIRE 160 576 -192 576
WIRE 384 576 384 480
WIRE 384 576 160 576
WIRE 528 576 528 256
WIRE 528 576 384 576
FLAG 528 576 0
FLAG 384 208 Vo-Ac
FLAG -112 176 Vin
FLAG 304 176 Vo-dc
SYMBOL klass-D-ganfet 208 144 R0
SYMATTR InstName X1
SYMBOL voltage 528 160 R0
WINDOW 123 0 0 Left 0
WINDOW 39 0 0 Left 0
SYMATTR InstName V1
SYMATTR Value 40V
SYMBOL res 368 240 R0
SYMATTR InstName R1
SYMATTR Value {RL}
SYMBOL voltage -192 208 R0
WINDOW 123 0 0 Left 0
WINDOW 39 0 0 Left 0
SYMATTR InstName V2
SYMATTR Value SINE(0 1 {Freq})
SYMBOL voltage 384 384 R0
WINDOW 123 0 0 Left 0
WINDOW 39 0 0 Left 0
SYMATTR InstName V3
SYMATTR Value PULSE(0 20 1n 1n 1n 1s 1s)
TEXT 72 704 Left 2 !#.step param RL list 1.3 100
TEXT 72 808 Left 2 !.tran 0 10u 0 0.1n
TEXT 72 752 Left 2 !.param RL 1.3
TEXT 72 776 Left 2 !.param Freq=340k
