Version 4
SHEET 1 880 736
WIRE 784 -144 96 -144
WIRE 96 -48 96 -144
WIRE -176 48 -256 48
WIRE 0 48 -176 48
WIRE 240 48 208 48
WIRE 784 48 784 -144
WIRE 336 80 208 80
WIRE 336 192 336 80
WIRE -256 448 -256 48
WIRE 96 448 96 160
WIRE 96 448 -256 448
WIRE 336 448 336 272
WIRE 336 448 96 448
WIRE 784 448 784 128
WIRE 784 448 336 448
FLAG 784 448 0
FLAG 336 80 Vo-Ac
FLAG -176 48 Vin
FLAG 240 48 Vo-dc
SYMBOL klass-D-ganfet 144 16 R0
SYMATTR InstName X1
SYMBOL voltage 784 32 R0
WINDOW 123 0 0 Left 0
WINDOW 39 0 0 Left 0
SYMATTR InstName V1
SYMATTR Value 40V
SYMBOL current 336 272 R180
WINDOW 0 24 80 Left 2
WINDOW 3 24 0 Left 2
WINDOW 123 0 0 Left 0
WINDOW 39 0 0 Left 0
SYMATTR InstName I1
SYMATTR Value SINE(0 {Ampl} {Freq})
TEXT 8 576 Left 2 !#.step param Ampl list 1 20
TEXT 8 720 Left 2 !.tran 0 13u 3u 0.1n
TEXT 8 624 Left 2 !.param RL 1.3
TEXT 8 648 Left 2 !.param Freq=300k
TEXT 8 672 Left 2 !.param Ampl=0
