Version 4
SHEET 1 880 680
WIRE 0 32 -16 32
WIRE -80 48 -144 48
WIRE 0 48 0 32
WIRE 224 48 0 48
WIRE 336 48 304 48
WIRE -80 80 -96 80
WIRE 112 128 -16 128
WIRE -144 144 -144 48
WIRE -80 144 -144 144
WIRE 208 144 208 128
WIRE 224 144 208 144
WIRE 336 144 304 144
WIRE 112 240 112 128
WIRE 224 240 112 240
WIRE 336 240 304 240
WIRE -288 256 -320 256
WIRE -144 256 -144 144
WIRE -144 256 -208 256
WIRE -96 336 -96 80
WIRE -80 336 -80 176
WIRE -80 336 -96 336
WIRE 336 336 -80 336
FLAG 336 48 HO
IOPIN 336 48 BiDir
FLAG 336 144 HS
IOPIN 336 144 BiDir
FLAG 336 240 LO
IOPIN 336 240 BiDir
FLAG 336 336 VSS
IOPIN 336 336 BiDir
FLAG -320 256 PWM_LI
IOPIN -320 256 BiDir
SYMBOL res 320 32 R90
WINDOW 0 0 56 VBottom 2
WINDOW 3 32 56 VTop 2
SYMATTR InstName R1
SYMATTR Value 1m
SYMBOL res 320 128 R90
WINDOW 0 0 56 VBottom 2
WINDOW 3 32 56 VTop 2
SYMATTR InstName R2
SYMATTR Value 1m
SYMBOL res 320 224 R90
WINDOW 0 0 56 VBottom 2
WINDOW 3 32 56 VTop 2
SYMATTR InstName R3
SYMATTR Value 1m
SYMBOL res -192 240 R90
WINDOW 0 0 56 VBottom 2
WINDOW 3 32 56 VTop 2
SYMATTR InstName R4
SYMATTR Value 1m
SYMBOL Digital\\buf -80 -16 R0
WINDOW 3 11 -14 Left 2
SYMATTR InstName A1
SYMATTR Value Vhigh=2
SYMBOL Digital\\buf -80 80 R0
SYMATTR InstName A2
