Version 4
SHEET 1 880 680
WIRE 496 -32 432 -32
WIRE 48 144 -336 144
WIRE -336 224 -336 144
WIRE 528 224 432 224
WIRE 448 256 432 256
WIRE 448 288 448 256
WIRE 448 288 432 288
WIRE -336 464 -336 304
WIRE -80 464 -336 464
WIRE 448 464 448 288
WIRE 448 464 -80 464
FLAG -80 464 0
SYMBOL LMG1210-simple 240 -32 R0
SYMATTR InstName X1
SYMBOL voltage -336 208 R0
WINDOW 123 0 0 Left 0
WINDOW 39 0 0 Left 0
SYMATTR InstName V1
SYMATTR Value 5
TEXT -370 488 Left 2 !.tran 1
