Version 4
SHEET 1 1532 680
WIRE 496 -336 0 -336
WIRE 544 -336 496 -336
WIRE 544 -256 544 -336
WIRE 928 -208 928 -224
WIRE 928 -208 720 -208
WIRE 1120 -208 928 -208
WIRE 720 -128 720 -208
WIRE 928 -112 928 -208
WIRE 496 -64 496 -336
WIRE 496 -64 432 -64
WIRE 560 -32 432 -32
WIRE 640 -32 560 -32
WIRE 448 0 432 0
WIRE 1120 16 1120 -208
WIRE 448 32 448 0
WIRE 448 32 432 32
WIRE 448 48 448 32
WIRE 544 48 544 -176
WIRE 544 48 448 48
WIRE 720 48 720 0
WIRE 720 48 544 48
WIRE 864 48 720 48
WIRE 928 48 928 -32
WIRE 928 48 864 48
WIRE 448 64 448 48
WIRE 448 64 432 64
WIRE 448 96 448 64
WIRE 448 96 432 96
WIRE 48 112 0 112
WIRE 448 128 432 128
WIRE 720 128 720 48
WIRE -224 144 -336 144
WIRE 48 144 -224 144
WIRE 928 144 928 48
WIRE 448 160 448 128
WIRE 512 192 432 192
WIRE 608 192 512 192
WIRE -336 224 -336 144
WIRE 560 224 432 224
WIRE 640 224 560 224
WIRE 448 256 432 256
WIRE 448 288 448 256
WIRE 448 288 432 288
WIRE 608 288 608 192
WIRE -336 464 -336 304
WIRE -80 464 -336 464
WIRE 448 464 448 288
WIRE 448 464 -80 464
WIRE 608 464 608 368
WIRE 608 464 448 464
WIRE 720 464 720 256
WIRE 720 464 608 464
WIRE 928 464 928 224
WIRE 928 464 720 464
WIRE 1120 464 1120 96
WIRE 1120 464 928 464
FLAG -80 464 0
FLAG 448 160 0
FLAG 560 -32 TG
FLAG 560 224 BG
FLAG 864 48 Vo
FLAG 512 192 5V
FLAG 0 112 5V
FLAG -224 144 PWM
SYMBOL voltage -336 208 R0
WINDOW 123 0 0 Left 0
WINDOW 39 0 0 Left 0
SYMATTR InstName V1
SYMATTR Value PULSE(0 1 200n 1n 1n 100n 200n)
SYMBOL voltage 1120 0 R0
WINDOW 123 0 0 Left 0
WINDOW 39 0 0 Left 0
SYMATTR InstName V2
SYMATTR Value 40
SYMBOL res 912 128 R0
SYMATTR InstName R1
SYMATTR Value 10
SYMBOL EPCGaN 640 -32 R0
SYMATTR InstName U1
SYMATTR Value EPC2214
SYMBOL EPCGaN 640 224 R0
SYMATTR InstName U2
SYMATTR Value EPC2214
SYMBOL LMG1210-simple2 240 -32 R0
SYMATTR InstName X1
SYMBOL voltage 544 -272 R0
WINDOW 123 0 0 Left 0
WINDOW 39 0 0 Left 0
SYMATTR InstName V3
SYMATTR Value 5
SYMBOL voltage 608 272 R0
WINDOW 123 0 0 Left 0
WINDOW 39 0 0 Left 0
SYMATTR InstName V4
SYMATTR Value 5
SYMBOL res 912 -128 R0
SYMATTR InstName R2
SYMATTR Value 10
TEXT -368 488 Left 2 !.tran 0 40u 0 1n startup
