Version 4
SHEET 1 1960 1232
WIRE 976 -128 560 -128
WIRE 1328 -128 1056 -128
WIRE -1952 -96 -1952 -144
WIRE 560 -96 560 -128
WIRE 1328 -80 1328 -128
WIRE -1952 0 -1952 -16
WIRE -1808 0 -1952 0
WIRE -1648 0 -1808 0
WIRE -1504 0 -1568 0
WIRE 384 0 240 0
WIRE 480 0 384 0
WIRE -1952 32 -1952 0
WIRE 256 32 240 32
WIRE 256 48 256 32
WIRE 480 48 256 48
WIRE 560 48 560 32
WIRE 560 48 480 48
WIRE 672 48 560 48
WIRE 688 48 672 48
WIRE 784 48 768 48
WIRE 992 48 864 48
WIRE 1040 48 992 48
WIRE 1136 48 1040 48
WIRE 1328 48 1328 0
WIRE 1328 48 1216 48
WIRE -1136 64 -1168 64
WIRE -896 64 -1056 64
WIRE 256 64 256 48
WIRE 256 64 240 64
WIRE 992 80 992 48
WIRE 1328 80 1328 48
WIRE -1696 96 -1696 64
WIRE 256 96 256 64
WIRE 256 96 240 96
WIRE 256 128 256 96
WIRE 256 128 240 128
WIRE -1952 144 -1952 112
WIRE -1808 144 -1808 0
WIRE -1728 144 -1808 144
WIRE -1024 144 -1024 112
WIRE -896 144 -896 64
WIRE -768 144 -896 144
WIRE -208 144 -768 144
WIRE 672 144 672 48
WIRE 256 160 256 128
WIRE 256 160 240 160
WIRE 560 160 560 48
WIRE -1504 176 -1504 0
WIRE -1504 176 -1584 176
WIRE -1456 176 -1504 176
WIRE -1360 176 -1456 176
WIRE -1168 176 -1168 64
WIRE -1168 176 -1280 176
WIRE -1072 176 -1168 176
WIRE -192 176 -208 176
WIRE -144 176 -192 176
WIRE -896 192 -896 144
WIRE -896 192 -944 192
WIRE -2128 208 -2224 208
WIRE -1904 208 -2128 208
WIRE -1760 208 -1824 208
WIRE -1728 208 -1760 208
WIRE -1072 208 -1232 208
WIRE 992 208 992 144
WIRE 1328 208 1328 160
WIRE -192 224 -192 176
WIRE 672 224 672 208
WIRE -2224 256 -2224 208
WIRE 352 256 240 256
WIRE 480 256 352 256
WIRE -1696 288 -1696 256
WIRE -1648 288 -1648 256
WIRE 272 288 240 288
WIRE -1760 304 -1760 208
WIRE 272 320 272 288
WIRE 272 320 240 320
WIRE -1024 336 -1024 240
WIRE -992 336 -992 240
WIRE -992 336 -1024 336
WIRE 272 336 272 320
WIRE 480 336 480 320
WIRE 480 336 272 336
WIRE 560 336 560 288
WIRE 560 336 480 336
WIRE 672 336 672 304
WIRE 672 336 560 336
WIRE -1024 352 -1024 336
WIRE 272 352 272 336
WIRE 272 352 240 352
WIRE 560 400 560 336
WIRE -2224 448 -2224 336
WIRE -1760 448 -1760 384
WIRE 672 560 672 464
WIRE 784 576 720 576
WIRE 512 608 368 608
WIRE 592 608 512 608
WIRE -2224 624 -2224 528
WIRE -1760 624 -1760 528
WIRE 896 640 720 640
WIRE 672 720 672 656
WIRE 512 832 512 688
WIRE 512 960 512 912
FLAG 1328 208 0
FLAG 992 208 0
FLAG 1328 -128 10V
FLAG 560 400 0
FLAG 1904 240 0
FLAG 1904 160 5V
FLAG -1024 112 5V
FLAG -1024 352 0
FLAG -1232 208 sens
FLAG 512 960 0
FLAG -1696 288 0
FLAG -1648 288 0
FLAG -1696 64 5V
FLAG 1040 48 Vfb
FLAG -1952 -144 Vfb
FLAG -2224 624 0
FLAG -1952 144 0
FLAG -1760 624 0
FLAG 480 48 Sw
FLAG -768 144 PWM
FLAG -1456 176 EA
FLAG -2128 208 Vin
FLAG 672 720 0
FLAG 672 464 10V
FLAG 368 608 sens
FLAG 384 0 Tg
FLAG 896 640 0
FLAG 784 576 0
FLAG 352 256 Bg
FLAG -192 224 0
DATAFLAG 544 608 ""
DATAFLAG -2080 208 ""
SYMBOL ind 672 64 R270
WINDOW 0 32 56 VTop 2
WINDOW 3 5 56 VBottom 2
SYMATTR InstName L1
SYMATTR Value 2.5µH
SYMBOL voltage 1328 64 R0
SYMATTR InstName V1
SYMATTR Value 5V
SYMBOL voltage 1328 -96 R0
SYMATTR InstName V2
SYMATTR Value 5V
SYMBOL cap 976 80 R0
SYMATTR InstName C1
SYMATTR Value 800nF
SYMBOL res 880 32 R90
WINDOW 0 0 56 VBottom 2
WINDOW 3 32 56 VTop 2
SYMATTR InstName R1
SYMATTR Value 10m
SYMBOL voltage 1904 144 R0
SYMATTR InstName V5
SYMATTR Value 5V
SYMBOL voltage 512 816 R0
SYMATTR InstName V4
SYMATTR Value 2.5V
SYMBOL res 1232 32 R90
WINDOW 0 0 56 VBottom 2
WINDOW 3 32 56 VTop 2
SYMATTR InstName R12
SYMATTR Value 3
SYMBOL Opamps\\LT6236 -1696 176 R0
SYMATTR InstName U3
SYMBOL res -1968 -112 R0
SYMATTR InstName R2
SYMATTR Value 10k
SYMBOL res -1664 16 R270
WINDOW 0 32 56 VTop 2
WINDOW 3 0 56 VBottom 2
SYMATTR InstName R11
SYMATTR Value {10k*gm1}
SYMBOL voltage -2224 240 R0
WINDOW 123 0 0 Left 0
WINDOW 39 0 0 Left 0
SYMATTR InstName V6
SYMATTR Value SINE(2.5 1 20k)
SYMBOL res -1808 192 R90
WINDOW 0 0 56 VBottom 2
WINDOW 3 32 56 VTop 2
SYMATTR InstName R13
SYMATTR Value 5k
SYMBOL res -1744 400 R180
WINDOW 0 36 76 Left 2
WINDOW 3 36 40 Left 2
SYMATTR InstName R14
SYMATTR Value {10k*gm1}
SYMBOL res -1968 16 R0
SYMATTR InstName R15
SYMATTR Value 10k
SYMBOL voltage -2224 432 R0
WINDOW 123 0 0 Left 0
WINDOW 39 0 0 Left 0
SYMATTR InstName V8
SYMATTR Value PWL(10u 0 11u -4v 12u 4v 13u -4 14u 4 15u 0)
SYMBOL voltage -1760 432 R0
WINDOW 123 0 0 Left 0
WINDOW 39 0 0 Left 0
SYMATTR InstName V7
SYMATTR Value 2.5V
SYMBOL current-amp 672 624 M0
SYMATTR InstName X1
SYMBOL res 496 592 R0
SYMATTR InstName R7
SYMATTR Value 1k
SYMBOL tlv3501 -1024 192 R0
SYMATTR InstName U4
SYMBOL res -1040 48 R90
WINDOW 0 0 56 VBottom 2
WINDOW 3 32 56 VTop 2
SYMATTR InstName R8
SYMATTR Value 500Meg
SYMBOL res -1264 160 R90
WINDOW 0 0 56 VBottom 2
WINDOW 3 32 56 VTop 2
SYMATTR InstName R9
SYMATTR Value 100
SYMBOL EPCGaN 480 0 R0
SYMATTR InstName U1
SYMATTR Value EPC2214
SYMBOL EPCGaN 480 256 R0
SYMATTR InstName U2
SYMATTR Value EPC2214
SYMBOL LMG1210-simple 48 0 R0
SYMATTR InstName X2
SYMBOL res 960 -144 M90
WINDOW 0 0 56 VBottom 2
WINDOW 3 32 56 VTop 2
SYMATTR InstName R3
SYMATTR Value 10m
SYMBOL cap 656 144 R0
SYMATTR InstName C2
SYMATTR Value 10p
SYMBOL res 656 208 R0
SYMATTR InstName R4
SYMATTR Value 10
TEXT -656 408 Left 2 !.tran 100u uic
TEXT -664 432 Left 2 !.lib opamp.sub
TEXT -664 472 Left 2 !.param gm1=2
TEXT -1144 -56 Left 2 ;gm_comp = 1/rm = 10 A/V
TEXT -1136 -8 Left 2 ;gm_tot = A-fb * gm_comp
TEXT 648 784 Left 2 ;Iout 1mA @ sens 1V -> R7=1k.  Imax =>1V:  10A*r1*gm = 1mA -> R1 = 1ma / (1/100) *10A) = 10m
