Version 4
SHEET 1 2020 692
WIRE -400 -48 -400 -80
WIRE 1008 -32 1008 -48
WIRE 112 32 96 32
WIRE -400 48 -400 32
WIRE -240 48 -400 48
WIRE 1520 48 1504 48
WIRE -800 64 -800 -32
WIRE -400 64 -400 48
WIRE 1008 64 1008 48
WIRE 1008 64 496 64
WIRE 1168 64 1008 64
WIRE 1008 80 1008 64
WIRE 2016 80 1920 80
WIRE -240 96 -240 48
WIRE -128 96 -240 96
WIRE 208 96 96 96
WIRE 496 112 496 64
WIRE 1168 112 1168 64
WIRE 1280 112 1168 112
WIRE 1616 112 1504 112
WIRE 1920 128 1920 80
WIRE -400 160 -400 144
WIRE -272 160 -400 160
WIRE -128 160 -272 160
WIRE 160 160 96 160
WIRE 288 160 160 160
WIRE 400 160 368 160
WIRE 432 160 400 160
WIRE 1008 176 1008 160
WIRE 1136 176 1008 176
WIRE 1280 176 1136 176
WIRE 1696 176 1504 176
WIRE 1712 176 1696 176
WIRE 1824 176 1792 176
WIRE 1856 176 1824 176
WIRE 400 192 400 160
WIRE -400 208 -400 160
WIRE 1824 208 1824 176
WIRE -800 224 -800 144
WIRE 1008 224 1008 176
WIRE 496 272 496 208
WIRE 496 272 400 272
WIRE -400 288 -400 272
WIRE 1920 288 1920 224
WIRE 1920 288 1824 288
WIRE -272 304 -272 160
WIRE 208 304 208 96
WIRE 208 304 -272 304
WIRE 496 304 496 272
WIRE 1008 304 1008 288
WIRE 1136 320 1136 176
WIRE 1616 320 1616 112
WIRE 1616 320 1136 320
WIRE 1920 320 1920 288
FLAG -800 224 0
FLAG -800 -32 VCC
FLAG -128 32 VCC
FLAG 112 32 0
FLAG 96 224 VCC
FLAG -400 288 0
FLAG 1280 48 VCC
FLAG 1520 48 0
FLAG 1504 240 VCC
FLAG 1008 304 0
FLAG 496 304 0
FLAG -400 -80 VCC
FLAG 1008 -48 VCC
FLAG 1696 176 Vo2
FLAG 160 160 Vo1
FLAG 1920 320 0
SYMBOL Misc\\NE555 -16 128 M0
SYMATTR InstName U1
SYMBOL res -416 -64 R0
SYMATTR InstName R1
SYMATTR Value 470k
SYMBOL res -416 48 R0
SYMATTR InstName R2
SYMATTR Value 100k
SYMBOL cap -416 208 R0
SYMATTR InstName C1
SYMATTR Value 15µF
SYMBOL voltage -800 48 R0
WINDOW 123 0 0 Left 0
WINDOW 39 0 0 Left 0
SYMATTR InstName V1
SYMATTR Value 5
SYMBOL Misc\\NE555 1392 144 M0
SYMATTR InstName U3
SYMBOL res 992 -48 R0
SYMATTR InstName R3
SYMATTR Value 100k
SYMBOL res 992 64 R0
SYMATTR InstName R4
SYMATTR Value 1k
SYMBOL cap 992 224 R0
SYMATTR InstName C2
SYMATTR Value 1.5µF
SYMBOL npn 432 112 R0
SYMATTR InstName Q1
SYMATTR Value BC547C
SYMBOL res 384 144 R90
WINDOW 0 0 56 VBottom 2
WINDOW 3 32 56 VTop 2
SYMATTR InstName R5
SYMATTR Value 1k
SYMBOL res 384 176 R0
SYMATTR InstName R6
SYMATTR Value 1k
SYMBOL npn 1856 128 R0
SYMATTR InstName Q2
SYMATTR Value BC547C
SYMBOL res 1808 160 R90
WINDOW 0 0 56 VBottom 2
WINDOW 3 32 56 VTop 2
SYMATTR InstName R7
SYMATTR Value 1k
SYMBOL res 1808 192 R0
SYMATTR InstName R8
SYMATTR Value 1k
TEXT -834 328 Left 2 !.tran 10s
TEXT -704 96 Left 2 ;PULSE\n100-100k 1ms-1000ms
TEXT -704 -16 Left 2 ;Period\n470k  500ms
TEXT 688 112 Left 2 ;Pulse\n1k-10k  1ms - 10ms
TEXT 688 -8 Left 2 ;Period\n10k-100k  10ms - 100ms
